LAMMPS (23 May 2014)
units		metal
dimension	3
atom_style	atomic

boundary	p p p
lattice		fcc 3.68
Lattice spacing in x,y,z = 3.68 3.68 3.68
region		box block 0 10 0 10 0 10
create_box	1 box
Created orthogonal box = (0 0 0) to (36.8 36.8 36.8)
#create_atoms	1 region box #random 64000 123456789 box

read_dump	model.dump 0 x y z scaled yes add yes
  orthogonal box = (0 0 0) to (36.8 36.8 36.8)
  0 atoms before read
  4000 atoms in snapshot
  0 atoms purged
  0 atoms replaced
  0 atoms trimmed
  4000 atoms added
  4000 atoms after read

mass		1 63.546

#pair_style	morse 6.0
#pair_coeff	1 1 0.3429 1.359 2.866 #D0 alpha R0
pair_style      soft 6.0 #1.57079632675 #pi/2
pair_coeff      1 1 0.5 6.0 #1.57079632675

#pair_modify	shift yes

#neighbor	0.0 bin
#neigh_modify	delay 0 every 1 check yes

timestep	0.00001
fix		1 all nve

compute		1 all pe/atom
compute		2 all ke/atom

dump		1 all custom 4000 out.dump x y z c_1 c_2
thermo		40

#minimize 	1e-15 1e-15 5000 5000

run		4000
Step Temp E_pair E_mol TotEng Press
0            0    26491.748            0    26491.748    931250.21
Averages over the last 51 of 101 rows, steps 2000 to 4000:
Temp E_pair E_mol TotEng Press
6.15271e-27 26491.7 0 26491.7 931250
Loop time of 82.8246 on 4 procs (1 MPI x 4 OpenMP) for 4000 steps with 4000 atoms

Pair  time (%) = 81.7541 (98.7075)
Neigh time (%) = 0 (0)
Comm  time (%) = 0.353481 (0.426783)
Outpt time (%) = 0.0174086 (0.0210187)
Other time (%) = 0.69958 (0.844653)
